66
test_genrotate_27_31_90.xyz  Rotated 90
C     -0.608577      1.779680     -0.983156
C     -0.071757      3.225133     -0.894047
C     -2.710017      2.970415     -0.800828
C     -2.036005      3.743517      0.347020
O     -2.627981      4.230343      1.285992
O     -0.711802      3.956674      0.194479
O     -1.996565      1.768057     -1.177880
O      0.037784      0.934864     -1.644352
C     -4.155706      2.614861     -0.505090
H     -4.233267      2.069231      0.439050
H     -4.750295      3.530483     -0.423652
H     -4.554093      2.002650     -1.321635
C      1.431292      3.367955     -0.757566
H      1.797410      2.945555      0.179133
H      1.908283      2.844446     -1.591409
H      1.702888      4.428570     -0.804907
H     -0.387993      3.697597     -1.837852
H     -2.673300      3.657842     -1.664925
C      0.405852      1.364214      1.643367
H      0.546271      2.411773      1.954185
H      1.337739      1.006755      1.178180
H      0.236606      0.762282      2.550732
O     -0.712718      1.231716      0.785302
H     -1.355386     -0.092421      0.963654
C      1.481605     -1.719596     -0.140059
S      2.085156     -3.091170      0.652059
N      2.234316     -0.638127     -0.525964
H      1.725323      0.063454     -1.070805
N      0.178967     -1.580783     -0.490446
H     -0.082728     -0.712366     -0.981767
C      3.564313     -0.278797     -0.231598
C      3.933120      0.931729      0.377051
C      4.567778     -1.164803     -0.664522
C      5.285236      1.227481      0.568401
H      3.166879      1.630303      0.690165
C      5.914920     -0.853608     -0.480421
H      4.279734     -2.098657     -1.143388
C      6.282865      0.342460      0.145922
H      5.558093      2.168511      1.041929
H      6.676777     -1.551470     -0.821390
H      7.332481      0.583826      0.297273
C     -0.864807     -2.570982     -0.330906
C     -2.180722     -1.882717      0.075848
C     -1.081310     -3.393198     -1.616837
H     -0.557973     -3.261917      0.461318
C     -3.279054     -2.929900      0.300275
H     -2.485946     -1.196467     -0.724850
C     -2.181031     -4.442746     -1.416090
H     -1.355793     -2.709250     -2.432896
H     -0.126250     -3.863100     -1.878644
C     -3.487232     -3.774733     -0.968801
H     -4.220946     -2.442863      0.571303
H     -2.988899     -3.587078      1.130944
H     -2.338418     -5.005598     -2.344699
H     -1.857389     -5.161052     -0.648307
H     -4.262144     -4.526872     -0.776624
H     -3.856493     -3.122959     -1.774277
N     -1.979193     -0.969177      1.276785
C     -1.297538     -1.627095      2.431454
H     -1.250374     -0.904037      3.248853
H     -1.874201     -2.501373      2.745483
H     -0.287927     -1.920803      2.137270
C     -3.258363     -0.338184      1.718063
H     -3.003837      0.505349      2.363216
H     -3.788679      0.019066      0.833834
H     -3.869292     -1.063644      2.260290
