58
 F: K:12,13; C:28 L:29-58
Cl      0.063367     -1.681766      2.410688
 C     -2.474199     -2.797503     -0.661467
 C     -3.210612     -1.139306     -2.759731
 C     -1.563829     -1.819286     -1.091944
 C     -3.784489     -2.853664     -1.153403
 C     -4.151471     -2.006072     -2.194737
 C     -1.922182     -1.055660     -2.222602
 H     -4.460876     -3.609025     -0.765184
 H     -5.158292     -2.057286     -2.601178
 H     -3.482503     -0.512034     -3.605102
 C      0.420246     -0.207636     -2.009437
 C     -0.877889     -0.150927     -2.820460
 H     -0.660982     -0.396794     -3.869460
 H     -1.206320      0.897334     -2.810147
 O      1.490921      0.009710     -2.541216
 O     -2.064387     -3.816940      0.137729
 C     -0.638067     -3.992511      0.155216
 H     -0.458978     -5.065033     -0.005444
 H     -0.265070     -3.696800      1.134443
 C      0.080614     -3.205854     -0.936673
 C      1.301032     -2.585515     -0.555265
 C     -0.033227     -3.726880     -2.358267
 H     -1.054678     -4.004628     -2.627133
 H      0.601288     -4.622481     -2.432118
 H      0.342137     -2.998910     -3.082331
 H      2.043185     -2.400361     -1.326955
 H      1.692111     -2.803691      0.433350
Rh      0.164848     -0.775686     -0.112119
 H      0.351719      2.817509      1.070231
 C     -0.433637      2.373753      1.690184
 H     -1.162300      3.170482      1.873615
 C      0.167607      1.879320      3.030100
 H     -0.204310      0.884097      3.292290
 H     -0.184146      2.558096      3.816012
 C      1.706814      1.879320      3.072602
 H      2.012334      1.913521      4.127128
 C      2.427507      0.657896      2.476200
 H      2.064035     -0.246653      2.970299
 H      3.500992      0.752835      2.677898
 P     -1.304177      1.094453      0.641555
 P      2.262311      0.311175      0.644411
 C     -2.088224      2.120659     -0.583376
 C     -2.699777      0.679570      1.665496
 C      3.658156     -0.747598      0.329926
 C      2.840843      1.824609     -0.092543
 H      2.091082      2.803744      2.620095
 H     -2.661717      2.928353     -0.114535
 H     -1.339962      2.584142     -1.240896
 H     -2.765828      1.535121     -1.215099
 H     -3.497878      0.213428      1.076580
 H     -2.409488     -0.031327      2.451246
 H     -3.106862      1.569435      2.158952
 H      4.602550     -0.211349      0.477004
 H      3.656323     -1.608560      1.012412
 H      3.636150     -1.137580     -0.694039
 H      3.290039      1.639820     -1.074964
 H      2.011559      2.531026     -0.235056
 H      3.586678      2.314590      0.543636
