66
 F:1-23;23-24;24-58;
C     -0.608577      1.779680     -0.983156
C     -0.071757      3.225133     -0.894047
C     -2.710017      2.970415     -0.800828
C     -2.036005      3.743517      0.347020
O     -2.627981      4.230343      1.285992
O     -0.711802      3.956674      0.194479
O     -1.996565      1.768057     -1.177880
O      0.037784      0.934864     -1.644352
C     -4.155706      2.614861     -0.505090
H     -4.233267      2.069231      0.439050
H     -4.750295      3.530483     -0.423652
H     -4.554093      2.002650     -1.321635
C      1.431292      3.367955     -0.757566
H      1.797410      2.945555      0.179133
H      1.908283      2.844446     -1.591409
H      1.702888      4.428570     -0.804907
H     -0.387993      3.697597     -1.837852
H     -2.673300      3.657842     -1.664925
C      0.405852      1.364214      1.643367
H      0.546271      2.411773      1.954185
H      1.337739      1.006755      1.178180
H      0.236606      0.762282      2.550732
O     -0.712718      1.231716      0.785302
H     -1.147359     -0.252998      1.050894
C      1.481605     -1.719596     -0.140059
S      2.085156     -3.091170      0.652059
N      2.234316     -0.638127     -0.525964
H      1.725323      0.063454     -1.070805
N      0.178967     -1.580783     -0.490446
H     -0.082728     -0.712366     -0.981767
C      3.564313     -0.278797     -0.231598
C      4.206889     -0.576344      0.981005
C      4.234639      0.500512     -1.192177
C      5.507978     -0.119438      1.206184
H      3.687833     -1.154430      1.735703
C      5.528508      0.962643     -0.951625
H      3.731562      0.736774     -2.127837
C      6.177859      0.648006      0.247381
H      5.995333     -0.357308      2.149646
H      6.031079      1.563617     -1.706575
H      7.189510      1.000955      0.434054
C     -0.864807     -2.570982     -0.330906
C     -2.180722     -1.882717      0.075848
C     -1.081310     -3.393198     -1.616837
H     -0.557973     -3.261917      0.461318
C     -3.279054     -2.929900      0.300275
H     -2.485946     -1.196467     -0.724850
C     -2.181031     -4.442746     -1.416090
H     -1.355793     -2.709250     -2.432896
H     -0.126250     -3.863100     -1.878644
C     -3.487232     -3.774733     -0.968801
H     -4.220946     -2.442863      0.571303
H     -2.988899     -3.587078      1.130944
H     -2.338418     -5.005598     -2.344699
H     -1.857389     -5.161052     -0.648307
H     -4.262144     -4.526872     -0.776624
H     -3.856493     -3.122959     -1.774277
N     -1.979193     -0.969177      1.276785
C     -1.631705     -1.691896      2.536824
H     -1.560576     -0.952913      3.338087
H     -2.417597     -2.415105      2.771047
H     -0.672012     -2.197436      2.412155
C     -3.151964     -0.071985      1.497713
H     -2.829350      0.734388      2.159707
H     -3.456426      0.339760      0.534130
H     -3.974817     -0.631216      1.949055
