76
 F:52-24;1-23;23-24; K:8,7;28; L:25-76
C     -0.608577      1.779680     -0.983156
C     -0.071757      3.225133     -0.894047
C     -2.710017      2.970415     -0.800828
C     -2.036005      3.743517      0.347020
O     -2.627981      4.230343      1.285992
O     -0.711802      3.956674      0.194479
O     -1.996565      1.768057     -1.177880
O      0.037784      0.934864     -1.644352
C     -4.155706      2.614861     -0.505090
H     -4.233267      2.069231      0.439050
H     -4.750295      3.530483     -0.423652
H     -4.554093      2.002650     -1.321635
C      1.431292      3.367955     -0.757566
H      1.797410      2.945555      0.179133
H      1.908283      2.844446     -1.591409
H      1.702888      4.428570     -0.804907
H     -0.387993      3.697597     -1.837852
H     -2.673300      3.657842     -1.664925
C      0.405852      1.364214      1.643367
H      0.546271      2.411773      1.954185
H      1.337739      1.006755      1.178180
H      0.236606      0.762282      2.550732
O     -0.712718      1.231716      0.785302
H     -1.355386     -0.092421      0.963654
C      2.034214     -1.715524     -1.944926
C      0.733423     -2.214339     -1.703678
C      2.478082     -2.986495     -2.573521
C      1.064322     -3.518766     -2.332478
N      2.533956     -0.492731     -1.634304
N     -0.373506     -1.693865     -1.191577
H      1.905873      0.126032     -1.137599
H     -0.331447     -0.769975     -0.778586
C      3.796247      0.054434     -1.897661
C     -1.539060     -2.502690     -0.798853
C     -2.551269     -1.639198     -0.005827
C     -2.190725     -3.102312     -2.054239
H     -1.162999     -3.307161     -0.161199
C     -3.801301     -2.482446      0.332792
H     -2.866938     -0.835269     -0.687552
C     -3.445381     -3.916825     -1.707435
H     -2.468705     -2.278342     -2.728366
H     -1.453176     -3.721768     -2.576672
C     -4.454257     -3.059894     -0.930055
H     -4.511841     -1.859875      0.888557
H     -3.505884     -3.309167      0.991328
H     -3.895446     -4.308797     -2.627063
H     -3.155172     -4.780004     -1.092081
H     -5.334681     -3.655944     -0.660715
H     -4.800977     -2.236773     -1.571249
O      3.500692     -3.437383     -3.073544
O      0.461335     -4.555201     -2.565617
N     -1.911024     -0.974146      1.140398
C     -2.766254      0.054422      1.729872
C     -1.425894     -1.891259      2.175122
C      4.764827     -0.028343     -0.882872
C      4.116810      0.676378     -3.112627
C      6.035693      0.502057     -1.088420
H      4.522171     -0.509622      0.059107
C      5.395081      1.206546     -3.290291
H      3.380740      0.740717     -3.906945
C      6.368378      1.128404     -2.292360
H      7.357219      1.542054     -2.445249
C      7.051290      0.463093      0.031702
C      5.746414      1.820182     -4.629073
F      6.850503     -0.578300      0.884277
F      8.326121      0.360784     -0.430410
F      6.998980      1.602261      0.787026
F      6.732439      2.752556     -4.530743
F      6.192513      0.869116     -5.504976
F      4.682423      2.425951     -5.219006
H     -3.752614      0.017078      1.251955
H     -2.888834     -0.137374      2.802553
H     -2.366299      1.079426      1.601613
H     -0.715132     -1.382693      2.831213
H     -2.278882     -2.216224      2.782358
H     -0.939741     -2.792600      1.757058
