14
tBuOH.xyz 4=>Et 1,3=>Cl
Cl     -0.226897     -1.693597      0.873697
C     -0.831115     -0.040564      0.873697
Cl     -0.213212      0.799994      2.291180
C     -0.373266      0.665517     -0.416041
C     -2.370681     -0.026229      0.840062
H     -2.768852      0.868229      1.332484
H     -2.738272     -0.025763     -0.195275
H     -2.785523     -0.910217      1.337603
H     -0.688390      0.108113     -1.305463
H     -0.807688      1.672286     -0.484893
C      1.158787      0.817370     -0.452847
H      1.417660      1.684193     -1.024251
H      1.530737      0.923650      0.544779
H      1.592443     -0.050227     -0.904643
