88
K:8,7;28 L:28-88
 C      2.052754      6.756252     -1.004590
 C      0.964166      5.894949     -1.024513
 C      1.143658      4.499257     -0.900628
 C      2.463784      3.971432     -0.747455
 C      3.556246      4.867740     -0.731939
 C      3.355862      6.235877     -0.861087
 H     -0.961601      3.992290     -1.071449
 H      1.903581      7.828322     -1.100919
 H     -0.045061      6.284866     -1.139131
 C      0.039363      3.582506     -0.951295
 C      2.635825      2.557925     -0.547210
 H      4.562323      4.469813     -0.615692
 H      4.208195      6.910695     -0.849914
 C      1.536328      1.642091     -0.727227
 C      0.217508      2.230178     -0.874623
 O      1.675840      0.378092     -0.707097
 H      2.773838     -0.755162     -0.733602
 C      2.610685      2.474486      1.673482
 C      2.821301      1.179546      2.106600
 H      1.619793      2.907327      1.742082
 H      3.453934      3.155064      1.694758
 H      3.799316      0.731411      2.215466
 N      1.779608      0.305011      2.350127
 O      2.065084     -0.891654      2.695062
 O      0.573566      0.676453      2.252422
 H      3.641412      2.151824     -0.605476
 H     -0.623422      1.548707     -0.953903
 C     -0.751065     -1.827333     -0.360971
 C      0.412052     -2.625902     -0.268664
 C     -1.243462     -2.563387     -1.553986
 C      0.003962     -3.441629     -1.441040
 N     -1.120899     -0.790312      0.432290
 N      1.428626     -2.679715      0.581109
 H     -0.464403     -0.536711      1.159457
 H      1.504663     -1.965570      1.295335
 C     -2.282484     -0.007995      0.403563
 C      2.665590     -3.431470      0.313282
 C      3.844186     -2.457926      0.063884
 C      2.962449     -4.364473      1.497169
 H      2.483502     -4.026424     -0.585645
 C      5.148353     -3.261514     -0.140334
 H      3.956271     -1.870991      0.987812
 C      4.272956     -5.138517      1.293957
 H      3.040056     -3.754041      2.409306
 H      2.118444     -5.050539      1.629875
 C      5.444210     -4.175044      1.056543
 H      5.975267     -2.562477     -0.310319
 H      5.049792     -3.877489     -1.043256
 H      4.463600     -5.774693      2.166225
 H      4.168205     -5.800865      0.423162
 H      6.371073     -4.735346      0.883476
 H      5.596883     -3.561226      1.955871
 O     -2.207306     -2.519204     -2.307714
 O      0.462045     -4.402804     -2.039745
 N      3.528280     -1.489785     -0.998633
 C      4.689708     -0.686537     -1.376424
 C      2.906211     -2.080580     -2.186527
 C     -3.073916      0.022831      1.564373
 C     -2.678081      0.724432     -0.724608
 C     -4.241509      0.780914      1.591082
 H     -2.771701     -0.541510      2.440741
 C     -3.856411      1.469838     -0.674312
 H     -2.072623      0.715090     -1.624726
 C     -4.650602      1.512607      0.473168
 H     -4.834635      0.803532      2.481357
 H     -4.159538      2.023537     -1.538274
 C     -5.945953      2.344684      0.509406
 F     -6.004614      3.133852     -0.584337
 F     -7.012258      1.516882      0.524744
 F     -5.956521      3.112738      1.619578
 H      5.435240     -1.336003     -1.850852
 C      5.363266      0.005591     -0.176891
 C      4.265426      0.395820     -2.386419
 H      6.134517      0.658471     -0.528772
 H      4.634269      0.573138      0.362880
 H      5.789005     -0.733944      0.468659
 H      3.698970     -0.054336     -3.174699
 H      3.665779      1.130563     -1.890963
 H      5.136736      0.863261     -2.795342
 H      2.699072     -3.140597     -2.019984
 C      3.775757     -1.940504     -3.449804
 C      1.567459     -1.365465     -2.447203
 H      3.800605     -0.914889     -3.753772
 H      4.770077     -2.273663     -3.237125
 H      3.360753     -2.535635     -4.236247
 H      1.269277     -0.834822     -1.567200
 H      1.683143     -0.676129     -3.257347
 H      0.819784     -2.088578     -2.698181
