116
 F:1-2;4-31; K:4,5,6; L:44-116
B     -0.508100     -0.773196      0.000000
C      1.179923     -1.029662      0.335470
C      1.499239      0.061602      1.211672
C      1.230544      0.038294      2.563674
H      1.652929     -0.979777     -0.647371
H      1.263212     -2.021518      0.783734
H      1.718885      1.024427      0.748949
H      1.411688      0.914242      3.180976
H      1.185604     -0.911517      3.086896
O     -0.715966      0.487391     -0.647350
C     -1.735285      0.310032     -1.646356
O     -1.088510     -1.801142     -0.844710
C     -1.519166     -1.185853     -2.087442
C     -3.110208      0.542666     -0.994718
H     -3.311767     -0.198401     -0.215534
H     -3.115089      1.534994     -0.531383
H     -3.923303      0.505609     -1.727928
C     -1.508206      1.340977     -2.753315
H     -1.663194      2.348371     -2.352388
H     -0.489511      1.289202     -3.144748
H     -2.211383      1.196123     -3.581992
C     -2.778779     -1.895381     -2.580785
H     -3.539713     -1.956403     -1.799382
H     -2.537481     -2.914360     -2.897028
H     -3.203657     -1.370478     -3.444529
C     -0.388830     -1.356309     -3.113609
H      0.510072     -0.811023     -2.812173
H     -0.134792     -2.418673     -3.189555
H     -0.688931     -1.005356     -4.107022
O     -1.113756     -0.885130      1.373890
C     -0.932898      0.051481      2.248597
H     -0.943972      1.082475      1.889553
C     -1.376759     -0.192918      3.632079
C     -1.640601      0.899072      4.472318
C     -1.551995     -1.502763      4.109957
C     -2.080890      0.689059      5.777522
C     -1.988610     -1.704260      5.416647
C     -2.254481     -0.613508      6.251203
H     -1.505705      1.911606      4.097954
H     -1.333346     -2.342886      3.456196
H     -2.289820      1.538071      6.422529
H     -2.122625     -2.717018      5.785923
H     -2.596004     -0.779046      7.269566
O     -1.910237     -5.904991      1.594392
P     -0.743645     -4.979389      0.945916
O      0.302220     -6.085266      0.373603
O     -0.235317     -4.023599      1.954434
O     -1.299821     -4.393684     -0.408961
H     -1.214113     -3.388297     -0.511315
C     -2.289872     -7.181111      1.193801
C     -1.376018     -8.250580      1.266349
C     -3.645146     -7.372391      0.870257
C     -1.857541     -9.536964      0.965462
C     -4.078271     -8.680592      0.615412
C     -3.193434     -9.755750      0.651791
H     -1.160705    -10.369150      0.973635
H     -5.125726     -8.842436      0.377423
H     -3.543529    -10.760172      0.431421
C      0.852271     -7.033714      1.234635
C      0.044393     -8.096880      1.673595
C      2.221981     -6.945728      1.531363
C      0.646717     -9.078005      2.480151
C      2.779965     -7.970106      2.309021
C      2.000144     -9.019341      2.792036
H      0.035714     -9.887176      2.867738
H      3.840618     -7.928030      2.538628
H      2.448458     -9.790941      3.411551
C      3.085045     -5.817310      1.047833
C     -4.634193     -6.211517      0.784432
C      3.583249     -4.868432      1.971949
C      3.454023     -5.732666     -0.316908
C      4.441825     -3.863752      1.507570
C      4.312985     -4.707610     -0.723437
C      4.824194     -3.762520      0.170253
H      4.828575     -3.134476      2.216066
H      4.598892     -4.653682     -1.771148
C      3.235171     -4.895897      3.461521
C      2.555284     -3.593194      3.924327
C      4.475589     -5.206383      4.322313
H      2.513254     -5.699771      3.627994
H      1.634185     -3.424805      3.359589
H      2.299154     -3.660832      4.989152
H      3.212574     -2.724205      3.798338
H      4.940779     -6.155508      4.032099
H      5.236285     -4.422636      4.225184
H      4.200044     -5.273501      5.381793
C      2.986111     -6.746600     -1.360694
C      4.169013     -7.565581     -1.914616
C      2.190427     -6.079257     -2.498736
H      2.312497     -7.455286     -0.871488
H      4.708957     -8.076729     -1.109566
H      3.812382     -8.325034     -2.621207
H      4.887178     -6.928794     -2.444719
H      1.325024     -5.538082     -2.104843
H      2.809836     -5.372243     -3.063869
H      1.827631     -6.837103     -3.203821
C      5.780555     -2.668444     -0.286354
C      5.140583     -1.738330     -1.333721
C      7.108204     -3.252521     -0.806028
H      6.014812     -2.056531      0.595731
H      4.217465     -1.290402     -0.950389
H      5.828602     -0.927994     -1.604035
H      4.891524     -2.282998     -2.252201
H      7.586358     -3.883420     -0.048729
H      6.948812     -3.867345     -1.699943
H      7.806567     -2.450186     -1.073734
C     -4.797626     -5.519526     -0.420210
C     -5.376505     -5.840410      1.910477
C     -6.445680     -4.085321      0.627239
C     -6.282248     -4.777313      1.831881
C     -5.703369     -4.456428     -0.498807
H     -4.220632     -5.807984     -1.295479
H     -5.830404     -3.918547     -1.435169
H     -7.149709     -3.258982      0.566146
H     -6.859242     -4.488854      2.707150
H     -5.249470     -6.378291      2.846839
