15
methanol.xyz 3,4,5=>Me
O     -0.316119     -1.449438      0.873652
C     -0.831078     -0.040603      0.873652
C     -0.317736      0.685354      2.131057
C     -0.317737      0.685354     -0.383753
C     -2.371010     -0.026168      0.873631
H     -1.058751     -2.066389      0.873652
H     -2.756837     -0.753542      0.128335
H     -2.740521      0.988250      0.613249
H     -2.752640     -0.302564      1.879297
H     -1.145206      1.255609     -0.856517
H      0.075275     -0.053355     -1.113981
H      0.495730      1.389806     -0.109129
H      0.075281      1.687111      1.856426
H      0.495717      0.095293      2.603817
H     -1.145201      0.809657      2.861297
