14
tBuOH.xyz 4=>Et 1,3=>Cl
Cl     -0.226897     -1.693597      0.873697
C     -0.831115     -0.040564      0.873697
Cl     -0.213212      0.799994      2.291180
C     -0.373266      0.665517     -0.416041
C     -2.370681     -0.026229      0.840062
H     -2.768852      0.868229      1.332484
H     -2.738272     -0.025763     -0.195275
H     -2.785523     -0.910217      1.337603
H     -0.900012      0.270032     -1.291943
H     -0.578878      1.743538     -0.364658
C      1.140763      0.491627     -0.637577
H      1.520553      1.331657     -1.180724
H      1.634612      0.426333      0.309392
H      1.319080     -0.403930     -1.195324
