66
F:1-23;23-24 K:4,6;34 L:25-66
C       -0.6085770        1.7796800       -0.9831560
C       -0.0717570        3.2251330       -0.8940470
C       -2.7100170        2.9704150       -0.8008280
C       -2.0360050        3.7435170        0.3470200
O       -2.6279810        4.2303430        1.2859920
O       -0.7118020        3.9566740        0.1944790
O       -1.9965650        1.7680570       -1.1778800
O        0.0377840        0.9348640       -1.6443520
C       -4.1557060        2.6148610       -0.5050900
H       -4.2332670        2.0692310        0.4390500
H       -4.7502950        3.5304830       -0.4236520
H       -4.5540930        2.0026500       -1.3216350
C        1.4312920        3.3679550       -0.7575660
H        1.7974100        2.9455550        0.1791330
H        1.9082830        2.8444460       -1.5914090
H        1.7028880        4.4285700       -0.8049070
H       -0.3879930        3.6975970       -1.8378520
H       -2.6733000        3.6578420       -1.6649250
C        0.4058520        1.3642140        1.6433670
H        0.5462710        2.4117730        1.9541850
H        1.3377390        1.0067550        1.1781800
H        0.2366060        0.7622820        2.5507320
O       -0.7127180        1.2317160        0.7853020
H       -1.3553860       -0.0924210        0.9636540
C        1.4816050       -1.7195960       -0.1400590
S        2.0851560       -3.0911700        0.6520590
N        2.2343160       -0.6381270       -0.5259640
H        1.7253230        0.0634540       -1.0708050
N        0.1789670       -1.5807830       -0.4904460
H       -0.0827280       -0.7123660       -0.9817670
C        3.5643130       -0.2787970       -0.2315980
C        4.2068890       -0.5763440        0.9810050
C        4.2346390        0.5005120       -1.1921770
C        5.5079780       -0.1194380        1.2061840
H        3.6878330       -1.1544300        1.7357030
C        5.5285080        0.9626430       -0.9516250
H        3.7315620        0.7367740       -2.1278370
C        6.1778590        0.6480060        0.2473810
H        5.9953330       -0.3573080        2.1496460
H        6.0310790        1.5636170       -1.7065750
H        7.1895100        1.0009550        0.4340540
C       -0.8648070       -2.5709820       -0.3309060
C       -2.1807220       -1.8827170        0.0758480
C       -1.0813100       -3.3931980       -1.6168370
H       -0.5579730       -3.2619170        0.4613180
C       -3.2790540       -2.9299000        0.3002750
H       -2.4859460       -1.1964670       -0.7248500
C       -2.1810310       -4.4427460       -1.4160900
H       -1.3557930       -2.7092500       -2.4328960
H       -0.1262500       -3.8631000       -1.8786440
C       -3.4872320       -3.7747330       -0.9688010
H       -4.2209460       -2.4428630        0.5713030
H       -2.9888990       -3.5870780        1.1309440
H       -2.3384180       -5.0055980       -2.3446990
H       -1.8573890       -5.1610520       -0.6483070
H       -4.2621440       -4.5268720       -0.7766240
H       -3.8564930       -3.1229590       -1.7742770
N       -1.9791930       -0.9691770        1.2767850
C       -1.2975380       -1.6270950        2.4314540
H       -1.2503740       -0.9040370        3.2488530
H       -1.8742010       -2.5013730        2.7454830
H       -0.2879270       -1.9208030        2.1372700
C       -3.2583630       -0.3381840        1.7180630
H       -3.0038370        0.5053490        2.3632160
H       -3.7886790        0.0190660        0.8338340
H       -3.8692920       -1.0636440        2.2602900
