25
 K:7,13;
C      0.574800      2.905200     -0.618000
C      1.192400      4.083000     -1.009800
C      2.561600      4.218600     -0.780900
C      3.239000      3.179400     -0.161900
C      4.739859      3.297229      0.161864
C      2.538400      2.024100      0.191700
N      1.242000      1.884400     -0.041910
H      3.087800      5.123300     -1.077500
H      0.613500      4.874800     -1.478700
H      3.038800      1.184200      0.679600
C     -0.875300      2.693300     -0.711100
O     -1.623800      3.647800     -1.247800
N     -1.462900      1.660900     -0.215710
C     -2.979200      3.118000     -1.227200
H     -3.647200      3.944000     -0.971900
H     -3.202700      2.766500     -2.241700
C     -2.907500      1.989300     -0.191900
C     -3.302397      2.494776      1.208041
H     -3.496200      1.150100     -0.498700
H      4.899977      3.823260      1.109877
H      5.198479      2.303052      0.253099
H      5.274029      3.836252     -0.628828
H     -4.297529      2.953753      1.196792
H     -3.327862      1.666255      1.929116
H     -2.583330      3.233875      1.579191
