14
test.xyz  Rotated 90
C     -0.036004     -2.593110     -0.000041
C     -0.024961     -1.211028     -0.000010
C     -1.214162     -0.420926      0.000096
C     -2.257220     -2.649160      0.000200
C      1.997035     -2.009659     -0.000277
H     -3.218883     -3.150543      0.000255
H      3.076237     -2.018533     -0.000426
N      1.292954     -0.851266     -0.000290
H      1.650636      0.087246     -0.000473
N      1.239437     -3.077128      0.000193
N     -1.177587     -3.344540      0.000075
N     -2.319371     -1.282302      0.000184
O     -1.331280      0.787130      0.000029
H     -3.220041     -0.829275      0.000227
