64
target_tBu.xyz   Shifted by (3,9,2)
C      6.973600      6.766700      1.823300
C      6.132900      6.327300      0.637000
C      4.843010      7.142200      0.578300
C      4.099300      7.115600      1.885500
C      4.716700      6.962900      3.081100
C      6.207600      6.801600      3.124400
O      6.776000      6.749500      4.199800
C      4.052300      6.989700      4.420500
H      4.212900      6.047700      4.963200
H      4.504100      7.769700      5.047800
H      2.976900      7.195200      4.350700
H      7.361100      7.787400      1.653490
H      7.857300      6.135300      1.974800
H      5.892900      5.256900      0.721500
H      6.694100      6.449800     -0.298400
H      4.205100      6.811400     -0.251400
H      5.093600      8.192400      0.339700
C      0.694100      6.653700      0.082700
H      1.503400      6.762500     -0.649600
H     -0.011600      7.481600     -0.066900
H      0.155100      5.719400     -0.143400
C      1.186300      6.622400      1.503890
C      2.367290      5.893900      1.841800
C      0.094600      6.568800      2.543900
H     -0.656600      7.294000      2.310200
H      0.508900      6.782100      3.507100
H     -0.342600      5.592200      2.552000
C      2.907700      4.832700      0.933000
H      3.849000      4.412500      1.300300
H      2.153500      4.029000      0.936900
H      3.031100      5.143300     -0.109200
H      2.433390      5.629000      2.899400
Pd      2.398300      8.311500      1.818900
C      2.973100     11.216700      1.200900
C      3.590700     12.394500      0.809100
C      4.959900     12.530100      1.038000
C      5.637300     11.490900      1.657000
C      7.134904     11.598747      1.979967
C      4.936700     10.335600      2.010600
N      3.640300     10.195900      1.776990
H      5.486100     13.434800      0.741400
H      3.011800     13.186300      0.340200
H      5.437100      9.495700      2.498500
C      1.523000     11.004800      1.107800
O      0.774500     11.959300      0.571100
N      0.935400      9.972400      1.603190
C     -0.580900     11.429500      0.591700
H     -1.248900     12.255500      0.847000
H     -0.804400     11.078000     -0.422800
C     -0.509200     10.300800      1.627000
H     -0.788720     10.658591      2.617921
H     -1.097900      9.461600      1.320200
C      7.808147     12.862415      1.415701
H      8.869154     12.858351      1.690648
H      7.737381     12.897618      0.322109
H      7.352008     13.772799      1.822320
C      7.311163     11.604385      3.516045
H      6.884754     10.701963      3.967139
H      8.378315     11.644792      3.769051
H      6.814029     12.476406      3.957235
C      7.857724     10.364765      1.392314
H      8.925336     10.402820      1.643695
H      7.442756      9.434078      1.793955
H      7.756141     10.342909      0.300791
