14
test.xyz  Rotated 60
C     -1.296591      0.036004      2.245679
C     -0.605523      0.024961      1.048776
C     -0.210380      1.214162      0.364581
C     -1.324407      2.257220      2.294340
C     -1.005069     -1.997035      1.740277
H     -1.575051      3.218883      2.728578
H     -1.009635     -3.076237      1.747888
N     -0.425884     -1.292954      0.737073
H      0.043213     -1.650636     -0.075794
N     -1.538397     -1.239437      2.664968
N     -1.672205      1.177587      2.896494
N     -0.640992      2.319371      1.110598
O      0.393590      1.331280     -0.681660
H     -0.414441      3.220041      0.718287
14
test.xyz  Rotated 120
C      1.296519      0.036004      2.245720
C      0.605505      0.024961      1.048786
C      0.210546      1.214162      0.364485
C      1.324753      2.257220      2.294140
C      1.004590     -1.997035      1.740554
H      1.575492      3.218883      2.728323
H      1.008898     -3.076237      1.748314
N      0.425382     -1.292954      0.737363
H     -0.044033     -1.650636     -0.075321
N      1.538731     -1.239437      2.664775
N      1.672335      1.177587      2.896419
N      0.641310      2.319371      1.110414
O     -0.393540      1.331280     -0.681689
H      0.414834      3.220041      0.718060
14
test.xyz  Rotated 180
C      2.593110      0.036004      0.000041
C      1.211028      0.024961      0.000010
C      0.420926      1.214162     -0.000096
C      2.649160      2.257220     -0.000200
C      2.009659     -1.997035      0.000277
H      3.150543      3.218883     -0.000255
H      2.018533     -3.076237      0.000426
N      0.851266     -1.292954      0.000290
H     -0.087246     -1.650636      0.000473
N      3.077128     -1.239437     -0.000193
N      3.344540      1.177587     -0.000075
N      1.282302      2.319371     -0.000184
O     -0.787130      1.331280     -0.000029
H      0.829275      3.220041     -0.000227
14
test.xyz  Rotated 240
C      1.296591      0.036004     -2.245679
C      0.605523      0.024961     -1.048776
C      0.210380      1.214162     -0.364581
C      1.324407      2.257220     -2.294340
C      1.005069     -1.997035     -1.740277
H      1.575051      3.218883     -2.728578
H      1.009635     -3.076237     -1.747888
N      0.425884     -1.292954     -0.737073
H     -0.043213     -1.650636      0.075794
N      1.538397     -1.239437     -2.664968
N      1.672205      1.177587     -2.896494
N      0.640992      2.319371     -1.110598
O     -0.393590      1.331280      0.681660
H      0.414441      3.220041     -0.718287
14
test.xyz  Rotated 300
C     -1.296519      0.036004     -2.245720
C     -0.605505      0.024961     -1.048786
C     -0.210546      1.214162     -0.364485
C     -1.324753      2.257220     -2.294140
C     -1.004590     -1.997035     -1.740554
H     -1.575492      3.218883     -2.728323
H     -1.008898     -3.076237     -1.748314
N     -0.425382     -1.292954     -0.737363
H      0.044033     -1.650636      0.075321
N     -1.538731     -1.239437     -2.664775
N     -1.672335      1.177587     -2.896419
N     -0.641310      2.319371     -1.110414
O      0.393540      1.331280      0.681689
H     -0.414834      3.220041     -0.718060
14
test.xyz  Rotated 0
C     -2.593110      0.036004     -0.000041
C     -1.211028      0.024961     -0.000010
C     -0.420926      1.214162      0.000096
C     -2.649160      2.257220      0.000200
C     -2.009659     -1.997035     -0.000277
H     -3.150543      3.218883      0.000255
H     -2.018533     -3.076237     -0.000426
N     -0.851266     -1.292954     -0.000290
H      0.087246     -1.650636     -0.000473
N     -3.077128     -1.239437      0.000193
N     -3.344540      1.177587      0.000075
N     -1.282302      2.319371      0.000184
O      0.787130      1.331280      0.000029
H     -0.829275      3.220041      0.000227
14
test.xyz  Rotated 60
C     -1.296591      0.036004      2.245679
C     -0.605523      0.024961      1.048776
C     -0.210380      1.214162      0.364581
C     -1.324407      2.257220      2.294340
C     -1.005069     -1.997035      1.740277
H     -1.575051      3.218883      2.728578
H     -1.009635     -3.076237      1.747888
N     -0.425884     -1.292954      0.737073
H      0.043213     -1.650636     -0.075794
N     -1.538397     -1.239437      2.664968
N     -1.672205      1.177587      2.896494
N     -0.640992      2.319371      1.110598
O      0.393590      1.331280     -0.681660
H     -0.414441      3.220041      0.718287
