14
test.xyz  Rotated 0
C     -2.593110      0.036004     -0.000041
C     -1.211028      0.024961     -0.000010
C     -0.420926      1.214162      0.000096
C     -2.649160      2.257220      0.000200
C     -2.009659     -1.997035     -0.000277
H     -3.150543      3.218883      0.000255
H     -2.018533     -3.076237     -0.000426
N     -0.851266     -1.292954     -0.000290
H      0.087246     -1.650636     -0.000473
N     -3.077128     -1.239437      0.000193
N     -3.344540      1.177587      0.000075
N     -1.282302      2.319371      0.000184
O      0.787130      1.331280      0.000029
H     -0.829275      3.220041      0.000227
