58

Cl      0.057684     -1.732506      2.551965
C     -2.558914     -2.888225     -0.744165
C     -3.295327     -1.230028     -2.842429
C     -1.648544     -1.910008     -1.174642
C     -3.953920     -3.035109     -1.318798
C     -4.236186     -2.096794     -2.277435
C     -2.006897     -1.146382     -2.305300
H     -4.630307     -3.790470     -0.930579
H     -5.243007     -2.148008     -2.683876
H     -3.567218     -0.602756     -3.687800
C      0.335531     -0.298358     -2.092135
C     -0.962604     -0.241649     -2.903158
H     -0.745697     -0.487516     -3.952158
H     -1.291035      0.806612     -2.892845
O      1.406206     -0.081012     -2.623914
O     -2.149102     -3.907662      0.055031
C     -0.722782     -4.083233      0.072518
H     -0.543693     -5.155755     -0.088142
H     -0.349785     -3.787522      1.051745
C     -0.004101     -3.296576     -1.019371
C      1.216317     -2.676237     -0.637963
C     -0.117942     -3.817602     -2.440965
H     -1.139393     -4.095350     -2.709831
H      0.516573     -4.713203     -2.514816
H      0.257422     -3.089632     -3.165029
H      1.958470     -2.491083     -1.409653
H      1.607396     -2.894413      0.350652
Cr      0.164848     -0.775686     -0.112119
H      0.379837      2.933848      1.148315
C     -0.405519      2.490092      1.768268
H     -1.134182      3.286821      1.951699
C      0.195725      1.995659      3.108184
H     -0.176192      1.000436      3.370374
H     -0.156028      2.674435      3.894096
C      1.734932      1.995659      3.150686
H      2.040452      2.029860      4.205212
C      2.455625      0.774235      2.554284
H      2.092153     -0.130314      3.048383
H      3.529110      0.869174      2.755982
P     -1.276059      1.210792      0.719639
P      2.290429      0.427514      0.722495
C     -2.060106      2.236998     -0.505292
C     -2.671659      0.795909      1.743580
C      3.686274     -0.631259      0.408010
C      2.868961      1.940948     -0.014459
H      2.119200      2.920083      2.698179
H     -2.633599      3.044692     -0.036451
H     -1.311844      2.700481     -1.162812
H     -2.737710      1.651460     -1.137015
H     -3.469760      0.329767      1.154664
H     -2.381370      0.085012      2.529330
H     -3.078744      1.685774      2.237036
H      4.630668     -0.095010      0.555088
H      3.684441     -1.492221      1.090496
H      3.664268     -1.021241     -0.615955
H      3.318157      1.756159     -0.996880
H      2.039677      2.647365     -0.156972
H      3.614796      2.430929      0.621720
