58

Cl      0.069050     -1.631026      2.269411
C     -2.389484     -2.706781     -0.578769
C     -3.125897     -1.048584     -2.677033
C     -1.479114     -1.728564     -1.009246
C     -3.615058     -2.672219     -0.988008
C     -4.066756     -1.915350     -2.112039
C     -1.837467     -0.964938     -2.139904
H     -4.291445     -3.427580     -0.599789
H     -5.073577     -1.966564     -2.518480
H     -3.397788     -0.421312     -3.522404
C      0.504961     -0.116914     -1.926739
C     -0.793174     -0.060205     -2.737762
H     -0.576267     -0.306072     -3.786762
H     -1.121605      0.988056     -2.727449
O      1.575636      0.100432     -2.458518
O     -1.979672     -3.726218      0.220427
C     -0.553352     -3.901789      0.237914
H     -0.374263     -4.974311      0.077254
H     -0.180355     -3.606078      1.217141
C      0.165329     -3.115132     -0.853975
C      1.385747     -2.494793     -0.472567
C      0.051488     -3.636158     -2.275569
H     -0.969963     -3.913906     -2.544435
H      0.686003     -4.531759     -2.349420
H      0.426852     -2.908188     -2.999633
H      2.127900     -2.309639     -1.244257
H      1.776826     -2.712969      0.516048
Cr      0.164848     -0.775686     -0.112119
H      0.323601      2.701170      0.992147
C     -0.461755      2.257414      1.612100
H     -1.190418      3.054143      1.795531
C      0.139489      1.762981      2.952016
H     -0.232428      0.767758      3.214206
H     -0.212264      2.441757      3.737928
C      1.678696      1.762981      2.994518
H      1.984216      1.797182      4.049044
C      2.399389      0.541557      2.398116
H      2.035917     -0.362992      2.892215
H      3.472874      0.636496      2.599814
P     -1.332295      0.978114      0.563471
P      2.234193      0.194836      0.566327
C     -2.116342      2.004320     -0.661460
C     -2.727895      0.563231      1.587412
C      3.630038     -0.863937      0.251842
C      2.812725      1.708270     -0.170627
H      2.062964      2.687405      2.542011
H     -2.689835      2.812014     -0.192619
H     -1.368080      2.467803     -1.318980
H     -2.793946      1.418782     -1.293183
H     -3.525996      0.097089      0.998496
H     -2.437606     -0.147666      2.373162
H     -3.134980      1.453096      2.080868
H      4.574432     -0.327688      0.398920
H      3.628205     -1.724899      0.934328
H      3.608032     -1.253919     -0.772123
H      3.261921      1.523481     -1.153048
H      1.983441      2.414687     -0.313140
H      3.558560      2.198251      0.465552
