58

Cl      0.070674     -1.616528      2.229046
C     -2.365279     -2.680860     -0.555142
C     -3.101692     -1.022663     -2.653406
C     -1.454909     -1.702643     -0.985619
C     -3.566650     -2.620378     -0.940752
C     -4.042551     -1.889429     -2.088412
C     -1.813262     -0.939017     -2.116277
H     -4.243037     -3.375739     -0.552533
H     -5.049372     -1.940643     -2.494853
H     -3.373583     -0.395391     -3.498777
C      0.529166     -0.090993     -1.903112
C     -0.768969     -0.034284     -2.714135
H     -0.552062     -0.280151     -3.763135
H     -1.097400      1.013977     -2.703822
O      1.599841      0.126353     -2.434891
O     -1.955467     -3.700297      0.244054
C     -0.529147     -3.875868      0.261541
H     -0.350058     -4.948390      0.100881
H     -0.156150     -3.580157      1.240768
C      0.189534     -3.089211     -0.830348
C      1.409952     -2.468872     -0.448940
C      0.075693     -3.610237     -2.251942
H     -0.945758     -3.887985     -2.520808
H      0.710208     -4.505838     -2.325793
H      0.451057     -2.882267     -2.976006
H      2.152105     -2.283718     -1.220630
H      1.801031     -2.687048      0.539675
Co      0.164848     -0.775686     -0.112119
H      0.315568      2.667930      0.969837
C     -0.469788      2.224174      1.589790
H     -1.198451      3.020903      1.773221
C      0.131456      1.729741      2.929706
H     -0.240461      0.734518      3.191896
H     -0.220297      2.408517      3.715618
C      1.670663      1.729741      2.972208
H      1.976183      1.763942      4.026734
C      2.391356      0.508317      2.375806
H      2.027884     -0.396232      2.869905
H      3.464841      0.603256      2.577504
P     -1.340328      0.944874      0.541161
P      2.226160      0.161596      0.544017
C     -2.124375      1.971080     -0.683770
C     -2.735928      0.529991      1.565102
C      3.622005     -0.897177      0.229532
C      2.804692      1.675030     -0.192937
H      2.054931      2.654165      2.519701
H     -2.697868      2.778774     -0.214929
H     -1.376113      2.434563     -1.341290
H     -2.801979      1.385542     -1.315493
H     -3.534029      0.063849      0.976186
H     -2.445639     -0.180906      2.350852
H     -3.143013      1.419856      2.058558
H      4.566399     -0.360928      0.376610
H      3.620172     -1.758139      0.912018
H      3.599999     -1.287159     -0.794433
H      3.253888      1.490241     -1.175358
H      1.975408      2.381447     -0.335450
H      3.550527      2.165011      0.443242
