58

Cl      0.065803     -1.660020      2.350141
C     -2.437892     -2.758622     -0.626025
C     -3.174305     -1.100425     -2.724289
C     -1.527522     -1.780405     -1.056502
C     -3.711876     -2.775902     -1.082519
C     -4.115164     -1.967191     -2.159295
C     -1.885875     -1.016779     -2.187160
H     -4.388263     -3.531263     -0.694300
H     -5.121985     -2.018405     -2.565736
H     -3.446196     -0.473153     -3.569660
C      0.456553     -0.168755     -1.973995
C     -0.841582     -0.112046     -2.785018
H     -0.624675     -0.357913     -3.834018
H     -1.170013      0.936215     -2.774705
O      1.527228      0.048591     -2.505774
O     -2.028080     -3.778059      0.173171
C     -0.601760     -3.953630      0.190658
H     -0.422671     -5.026152      0.029998
H     -0.228763     -3.657919      1.169885
C      0.116921     -3.166973     -0.901231
C      1.337339     -2.546634     -0.519823
C      0.003080     -3.687999     -2.322825
H     -1.018371     -3.965747     -2.591691
H      0.637595     -4.583600     -2.396676
H      0.378444     -2.960029     -3.046889
H      2.079492     -2.361480     -1.291513
H      1.728418     -2.764810      0.468792
Pd      0.164848     -0.775686     -0.112119
H      0.339669      2.767649      1.036766
C     -0.445687      2.323893      1.656719
H     -1.174350      3.120622      1.840150
C      0.155557      1.829460      2.996635
H     -0.216360      0.834237      3.258825
H     -0.196196      2.508236      3.782547
C      1.694764      1.829460      3.039137
H      2.000284      1.863661      4.093663
C      2.415457      0.608036      2.442735
H      2.051985     -0.296513      2.936834
H      3.488942      0.702975      2.644433
P     -1.316227      1.044593      0.608090
P      2.250261      0.261315      0.610946
C     -2.100274      2.070799     -0.616841
C     -2.711827      0.629710      1.632031
C      3.646106     -0.797458      0.296461
C      2.828793      1.774749     -0.126008
H      2.079032      2.753884      2.586630
H     -2.673767      2.878493     -0.148000
H     -1.352012      2.534282     -1.274361
H     -2.777878      1.485261     -1.248564
H     -3.509928      0.163568      1.043115
H     -2.421538     -0.081187      2.417781
H     -3.118912      1.519575      2.125487
H      4.590500     -0.261209      0.443539
H      3.644273     -1.658420      0.978947
H      3.624100     -1.187440     -0.727504
H      3.277989      1.589960     -1.108429
H      1.999509      2.481166     -0.268521
H      3.574628      2.264730      0.510171
