55
test.xyz 38=>CF3
C      3.973251     -2.233328     -0.176799
C      3.132551     -2.672728     -1.363099
C      1.842661     -1.857828     -1.421799
C      1.098951     -1.884428     -0.114599
C      1.716351     -2.037128      1.081001
C      3.207251     -2.198428      1.124301
O      3.775651     -2.250528      2.199701
C      1.051951     -2.010328      2.420401
H      1.212551     -2.952328      2.963101
H      1.503751     -1.230328      3.047701
H     -0.023449     -1.804828      2.350601
H      4.360751     -1.212628     -0.346609
H      4.856951     -2.864728     -0.025299
H      2.892551     -3.743128     -1.278599
H      3.693751     -2.550228     -2.298499
H      1.204751     -2.188628     -2.251499
H      2.093251     -0.807628     -1.660399
C     -2.306249     -2.346328     -1.917399
H     -1.496949     -2.237528     -2.649699
H     -3.011949     -1.518428     -2.066999
H     -2.845249     -3.280628     -2.143499
C     -1.814049     -2.377628     -0.496209
C     -0.633059     -3.106128     -0.158299
C     -2.905749     -2.431228      0.543801
H     -3.656949     -1.706028      0.310101
H     -2.491449     -2.217928      1.507001
H     -3.342949     -3.407828      0.551901
C     -0.092649     -4.167328     -1.067099
H      0.848651     -4.587528     -0.699799
H     -0.846849     -4.971028     -1.063199
H      0.030751     -3.856728     -2.109299
H     -0.566959     -3.371028      0.899301
Pd     -0.602049     -0.688528     -0.181199
C     -0.027249      2.216672     -0.799199
C      0.590351      3.394472     -1.190999
C      1.959551      3.530072     -0.962099
C      2.636951      2.490872     -0.343099
C      4.114464      2.607716      0.075113
C      1.936351      1.335572      0.010501
N      0.639951      1.195872     -0.223109
H      2.485751      4.434772     -1.258699
H      0.011451      4.186272     -1.659899
H      2.436751      0.495672      0.498401
C     -1.477349      2.004772     -0.892299
O     -2.225849      2.959272     -1.428999
N     -2.064949      0.972372     -0.396909
C     -3.581249      2.429472     -1.408399
H     -4.249249      3.255472     -1.153099
H     -3.804749      2.077972     -2.422899
C     -3.509549      1.300772     -0.373099
H     -3.785849      1.620372      0.533301
H     -4.098249      0.461572     -0.679899
F      4.865398      1.563646     -0.371194
F      4.243935      2.628896      1.435651
F      4.697870      3.746658     -0.389238
