31
RMSD: 0.0276855741238291
C      0.776086      0.874162     -3.094509
O     -0.066756      1.808516     -3.103254
O      0.494433     -0.350992     -3.096698
C      2.238342      1.261222     -3.080295
H      2.521587      1.442956     -2.041304
H      2.855748      0.458165     -3.477862
H      2.393278      2.182066     -3.640330
C     -2.946679     -0.075178     -3.130714
N     -4.266824     -0.418123     -3.143550
H     -4.903495      0.311730     -2.869768
H     -4.478300     -1.289782     -2.684367
N     -2.029460     -1.021552     -3.121231
N     -2.585613      1.189695     -3.127763
H     -2.319978     -1.975575     -3.223230
H     -0.988669     -0.761337     -3.128577
H     -3.293574      1.894174     -3.041166
H     -1.540213      1.457091     -3.142400
C     -2.596746      0.035860      0.002896
C     -1.217067      0.024037      0.016487
C     -0.421288      1.211657      0.023756
C     -2.644329      2.256521      0.001367
C     -2.006242     -1.996977      0.009680
H     -3.143631      3.219627     -0.008907
H     -2.009398     -3.076041      0.004548
N     -0.854790     -1.289131      0.020681
H      0.085426     -1.633123     -0.072708
N     -3.079862     -1.242426     -0.001252
N     -3.349100      1.178832     -0.005058
N     -1.283126      2.317249      0.014742
O      0.783421      1.322786      0.035566
H     -0.826363      3.214338     -0.042056
