52
reference.xyz   Centered atom 33
C      4.575300     -1.544800      0.004400
C      3.734600     -1.984200     -1.181900
C      2.444710     -1.169300     -1.240600
C      1.701000     -1.195900      0.066600
C      2.318400     -1.348600      1.262200
C      3.809300     -1.509900      1.305500
O      4.377700     -1.562000      2.380900
C      1.654000     -1.321800      2.601600
H      1.814600     -2.263800      3.144300
H      2.105800     -0.541800      3.228900
H      0.578600     -1.116300      2.531800
H      4.962800     -0.524100     -0.165410
H      5.459000     -2.176200      0.155900
H      3.494600     -3.054600     -1.097400
H      4.295800     -1.861700     -2.117300
H      1.806800     -1.500100     -2.070300
H      2.695300     -0.119100     -1.479200
C     -1.704200     -1.657800     -1.736200
H     -0.894900     -1.549000     -2.468500
H     -2.409900     -0.829900     -1.885800
H     -2.243200     -2.592100     -1.962300
C     -1.212000     -1.689100     -0.315010
C     -0.031010     -2.417600      0.022900
C     -2.303700     -1.742700      0.725000
H     -3.054900     -1.017500      0.491300
H     -1.889400     -1.529400      1.688200
H     -2.740900     -2.719300      0.733100
C      0.509400     -3.478800     -0.885900
H      1.450700     -3.899000     -0.518600
H     -0.244800     -4.282500     -0.882000
H      0.632800     -3.168200     -1.928100
H      0.035090     -2.682500      1.080500
Pd      0.000000      0.000000      0.000000
C      0.574800      2.905200     -0.618000
C      1.192400      4.083000     -1.009800
C      2.561600      4.218600     -0.780900
C      3.239000      3.179400     -0.161900
H      4.301354      3.262803      0.067270
C      2.538400      2.024100      0.191700
N      1.242000      1.884400     -0.041910
H      3.087800      5.123300     -1.077500
H      0.613500      4.874800     -1.478700
H      3.038800      1.184200      0.679600
C     -0.875300      2.693300     -0.711100
O     -1.623800      3.647800     -1.247800
N     -1.462900      1.660900     -0.215710
C     -2.979200      3.118000     -1.227200
H     -3.647200      3.944000     -0.971900
H     -3.202700      2.766500     -2.241700
C     -2.907500      1.989300     -0.191900
H     -3.187020      2.347091      0.799021
H     -3.496200      1.150100     -0.498700
