52
reference.xyz   Shifted by (5,7,3)
C      9.575300      5.455200      3.004400
C      8.734600      5.015800      1.818100
C      7.444710      5.830700      1.759400
C      6.701000      5.804100      3.066600
C      7.318400      5.651400      4.262200
C      8.809300      5.490100      4.305500
O      9.377700      5.438000      5.380900
C      6.654000      5.678200      5.601600
H      6.814600      4.736200      6.144300
H      7.105800      6.458200      6.228900
H      5.578600      5.883700      5.531800
H      9.962800      6.475900      2.834590
H     10.459000      4.823800      3.155900
H      8.494600      3.945400      1.902600
H      9.295800      5.138300      0.882700
H      6.806800      5.499900      0.929700
H      7.695300      6.880900      1.520800
C      3.295800      5.342200      1.263800
H      4.105100      5.451000      0.531500
H      2.590100      6.170100      1.114200
H      2.756800      4.407900      1.037700
C      3.788000      5.310900      2.684990
C      4.968990      4.582400      3.022900
C      2.696300      5.257300      3.725000
H      1.945100      5.982500      3.491300
H      3.110600      5.470600      4.688200
H      2.259100      4.280700      3.733100
C      5.509400      3.521200      2.114100
H      6.450700      3.101000      2.481400
H      4.755200      2.717500      2.118000
H      5.632800      3.831800      1.071900
H      5.035090      4.317500      4.080500
Pd      5.000000      7.000000      3.000000
C      5.574800      9.905200      2.382000
C      6.192400     11.083000      1.990200
C      7.561600     11.218600      2.219100
C      8.239000     10.179400      2.838100
H      9.301354     10.262803      3.067270
C      7.538400      9.024100      3.191700
N      6.242000      8.884400      2.958090
H      8.087800     12.123300      1.922500
H      5.613500     11.874800      1.521300
H      8.038800      8.184200      3.679600
C      4.124700      9.693300      2.288900
O      3.376200     10.647800      1.752200
N      3.537100      8.660900      2.784290
C      2.020800     10.118000      1.772800
H      1.352800     10.944000      2.028100
H      1.797300      9.766500      0.758300
C      2.092500      8.989300      2.808100
H      1.812980      9.347091      3.799021
H      1.503800      8.150100      2.501300
