14
test.xyz  Rotated 90
C     -2.593110      0.000041      0.036004
C     -1.211028      0.000010      0.024961
C     -0.420926     -0.000096      1.214162
C     -2.649160     -0.000200      2.257220
C     -2.009659      0.000277     -1.997035
H     -3.150543     -0.000255      3.218883
H     -2.018533      0.000426     -3.076237
N     -0.851266      0.000290     -1.292954
H      0.087246      0.000473     -1.650636
N     -3.077128     -0.000193     -1.239437
N     -3.344540     -0.000075      1.177587
N     -1.282302     -0.000184      2.319371
O      0.787130     -0.000029      1.331280
H     -0.829275     -0.000227      3.220041
