12
K:1,4
P      -1.755101      0.143572      1.288922
H      -2.806723     -0.652562      1.001237
H      -2.226461      1.407144      1.349787
P       1.752826     -0.145957      1.291747
H       2.804952      0.650705      1.007389
H       2.224080     -1.409641      1.351107
C       0.739170      0.369668      2.817318
C      -0.744135     -0.374874      2.815323
H      -1.301886     -0.138137      3.697235
H      -0.560468     -1.428296      2.777011
H       0.555569      1.423160      2.780630
H       1.295365      0.131300      3.699774
