49
K:3; 
C         -0.26126        0.24655       -2.21471
C          0.75031        1.33665       -2.58781
C         -1.36337        2.32818       -2.24031
N         -0.03745        2.56871       -2.39710
N         -1.54696        0.97787       -2.25376
C          0.64931        3.92462       -2.38119
C         -2.83924        0.26071       -1.89868
H          1.63480        1.34015       -1.94492
H          1.08401        1.25750       -3.63050
H         -0.09339       -0.15132       -1.20513
H         -0.25975       -0.58937       -2.91593
C          1.14667        4.44060       -1.18417
C          0.78222        4.65309       -3.56323
C          1.77737        5.68447       -1.16940
C          1.41221        5.89780       -3.54846
C          1.90989        6.41351       -2.35184
H          2.16997        6.09096       -0.22603
H          1.51649        6.47212       -4.48052
C          1.00067        3.63549        0.12047
H          1.45878        2.67597        0.00061
H         -0.03734        3.50929        0.34744
H          1.47912        4.16181        0.91982
C          2.60627        7.78696       -2.33517
H          3.61411        7.67174       -1.99476
H          2.08028        8.44557       -1.67603
H          2.60827        8.19785       -3.32313
C          0.23309        4.08387       -4.88461
H         -0.82852        3.97217       -4.81100
H          0.67969        3.13037       -5.07514
H          0.46656        4.75356       -5.68580
C         -3.78240       -0.00929       -2.89066
C         -3.08227       -0.12739       -0.58115
C         -4.96799       -0.66783       -2.56521
C         -4.26861       -0.78526       -0.25527
C         -5.21138       -1.05564       -1.24704
H         -5.71117       -0.88123       -3.34716
H         -4.46014       -1.09077        0.78370
C         -3.51318        0.41842       -4.34537
H         -2.59745       -0.02051       -4.68253
H         -3.43735        1.48456       -4.39545
H         -4.31769        0.08839       -4.96887
C         -6.52062       -1.78269       -0.88802
H         -6.58161       -2.69928       -1.43670
H         -7.35434       -1.16070       -1.13885
H         -6.53556       -1.99327        0.16095
C         -2.04145        0.17075        0.51403
H         -1.92123        1.22934        0.61313
H         -1.10462       -0.27101        0.24549
H         -2.37533       -0.23895        1.44439

