30
K:7,12
 C                 -0.20813000   -2.12652100   -0.71084900
 N                 -0.82218700   -3.23103300   -1.09622100
 C                 -2.13817500   -3.29408800   -0.87015900
 C                 -2.81557600   -2.25750500   -0.24341100
 C                 -4.27613900   -2.31368500    0.08535400
 C                 -2.08688900   -1.11843500    0.08849700
 N                 -0.78532600   -1.04645000   -0.15761900
 H                 -2.65254000   -4.19951100   -1.19004800
 H                 -2.55527600   -0.25266500    0.56137500
 C                  1.26729600   -2.04893300   -0.78370500
 O                  1.95078000   -3.04382700   -1.32251900
 N                  1.91569600   -1.07697400   -0.24655500
 C                  3.34374300   -2.59962700   -1.27266800
 H                  3.95688600   -3.47406600   -1.04424200
 H                  3.59411700   -2.22522600   -2.27241100
 C                  3.33371700   -1.49793000   -0.21097200
 C                  3.75518500   -1.96161700    1.20921700
 H                  3.97133200   -0.65111300   -0.50133400
 F                 -4.94232500   -1.28336000   -0.45974900
 F                 -4.47729100   -2.24129400    1.41114500
 F                 -4.85148400   -3.43807800   -0.34650900
 C                  3.50125500   -0.85108900    2.22589200
 H                  3.81167700   -1.18868200    3.22534400
 H                  4.08099100    0.05086700    1.98827100
 H                  2.43762700   -0.57545300    2.28149000
 C                  5.25586000   -2.25149900    1.17180100
 H                  5.60515800   -2.54956000    2.17081600
 H                  5.51253700   -3.06703800    0.48047300
 H                  5.82554400   -1.35988400    0.86963100
 H                  3.21609464   -2.84401987    1.48425656
