71
K=1,2;
P      1.532907     -1.721898      0.215268
P      1.709351      1.421373     -0.646064
C      2.226784     -2.557072      1.696273
C      1.042423     -3.086711     -0.900802
C      1.377076      2.222877     -2.320413
C      2.353638      2.624971      0.656972
C      3.185267      0.325268     -0.932351
C      3.110326     -1.055746     -0.527370
N      4.152773     -1.845437     -0.610285
N      4.294846      0.830195     -1.415870
C      5.371203      0.012624     -1.535091
C      5.301900     -1.337380     -1.121569
C      6.444736     -2.164229     -1.237221
H      6.364183     -3.194122     -0.910675
C      6.581608      0.520925     -2.063820
C      7.602121     -1.651070     -1.753847
H      8.479729     -2.280141     -1.847189
C      7.670806     -0.298967     -2.170381
H      6.608652      1.559184     -2.372335
H      8.599257      0.084803     -2.577003
H      3.101555     -3.155889      1.438616
H      2.512024     -1.797556      2.426560
H      1.457869     -3.188400      2.144951
C      0.830537      1.078631     -3.192981
H     -0.069027      0.630062     -2.762745
H      0.573978      1.477561     -4.180091
H      1.578304      0.293444     -3.340590
C      2.561338      2.872440     -3.043576
H      3.359914      2.157244     -3.237614
H      2.204894      3.259870     -4.004861
H      2.987177      3.707900     -2.489039
C      0.261993      3.258106     -2.112952
H      0.631139      4.152574     -1.604515
H     -0.119922      3.571102     -3.090302
H     -0.571328      2.841178     -1.540190
C      3.358369      3.664274      0.156187
H      2.879289      4.400383     -0.492967
H      3.773594      4.205578      1.013811
H      4.181689      3.199559     -0.389887
C      1.132078      3.322804      1.276955
H      0.412778      2.598908      1.668865
H      1.464853      3.962142      2.101957
H      0.607527      3.955055      0.559216
C      3.010263      1.758037      1.745764
H      2.339892      0.960694      2.082717
H      3.945241      1.308081      1.403987
H      3.240336      2.386147      2.612317
H      1.909125     -3.313070     -1.572729
C     -0.162345     -2.663610     -1.735855
C      0.687515     -4.323161     -0.080445
H      0.099823     -1.754188     -2.338856
C     -1.332563     -2.342553     -0.811040
C     -0.554442     -3.801647     -2.673335
H      1.574312     -4.633492      0.533302
C     -0.483696     -4.000258      0.842463
C      0.294531     -5.459290     -1.019873
H     -2.217474     -2.020190     -1.416777
H     -1.055666     -1.500141     -0.127229
C     -1.690223     -3.578117      0.009472
H      0.296267     -4.035236     -3.362998
H     -1.431671     -3.493804     -3.297537
C     -0.911139     -5.038882     -1.854942
H     -0.198415     -3.174301      1.542704
H     -0.742569     -4.900439      1.456108
H      1.153720     -5.709255     -1.693095
H      0.043515     -6.374028     -0.424759
H     -2.551017     -3.340838      0.689268
C     -2.080516     -4.715117     -0.930015
H     -1.199323     -5.875245     -2.545474
H     -2.355287     -5.622405     -0.333991
H     -2.972857     -4.416363     -1.536963
