65

C     -0.808846      2.276621     -0.586794
C     -0.930144      3.543116     -1.132401
C      0.094985      4.460528     -0.894652
C      1.156888      4.089441     -0.090287
H      1.954633      4.780820      0.168329
C      1.178533      2.783975      0.417841
N      0.255864      1.874571      0.148578
H      0.044563      5.465164     -1.308834
H     -1.812270      3.803884     -1.711467
Cl      2.078112      2.486218      1.200886
C     -1.904530      1.301898     -0.650872
O     -3.053284      1.684980     -1.197211
N     -1.849301      0.138473     -0.106994
C     -3.918759      0.520764     -1.113532
H     -4.918727      0.875215     -0.852141
H     -3.942559      0.062736     -2.110467
C     -3.239684     -0.361909     -0.058695
C     -3.834854     -0.250187      1.369347
H     -3.262790     -1.420274     -0.359666
Pd      0.255411     -0.508247      0.020533
C      5.047960      0.220621     -0.096704
C      4.390402     -0.261306     -1.377709
C      2.873820     -0.096596     -1.289857
C      2.317212     -0.724765     -0.045388
C      3.014346     -0.852446      1.102156
H      4.776954      0.295981     -2.241115
H      2.625017      0.980520     -1.271506
C     -0.683105     -2.528167     -1.948660
H     -0.138593     -1.898453     -2.662632
H     -1.727783     -2.192223     -1.929502
C     -0.077626     -2.514247     -0.570400
C      1.329354     -2.636589     -0.411261
C     -0.888451     -3.230466      0.484995
H     -1.951201     -2.946470      0.417806
H     -0.530857     -2.981148      1.499045
H      4.981192      1.319845     -0.027950
C      4.412846     -0.318554      1.163503
O      4.997494     -0.279161      2.231111
H      6.118367     -0.016020     -0.056570
H      4.636264     -1.319161     -1.553036
H      2.384170     -0.490549     -2.191182
C      2.493552     -1.395322      2.393198
H      3.078151     -2.263019      2.729571
H      2.602255     -0.639708      3.182760
H      1.432771     -1.667332      2.333735
O     -0.710349     -4.605184      0.199305
H     -1.254172     -5.144452      0.790966
H     -0.682543     -3.559737     -2.335876
C      2.208329     -3.073621     -1.537579
H      3.269260     -3.039411     -1.273376
H      1.943962     -4.126207     -1.731873
H      2.049744     -2.530367     -2.475012
H      1.640609     -3.015056      0.564065
C     -3.894245      1.200438      1.849463
H     -4.332157      1.234964      2.855777
H     -2.893230      1.649883      1.921795
H     -4.518625      1.839406      1.209940
C     -5.244512     -0.844388      1.340893
H     -5.236491     -1.887112      0.990156
H     -5.673181     -0.841038      2.351872
H     -5.935066     -0.277317      0.701456
C     -2.987098     -1.055833      2.353345
H     -3.402197     -0.960510      3.365619
H     -2.987874     -2.126367      2.104100
H     -1.946264     -0.703727      2.385943
