106
paton
 C                 -2.71219730    1.75772580    2.25735570
 H                 -3.09682230    0.72884880    2.10373770
 H                 -1.92147830    1.72248880    3.01428670
 C                 -1.73427930    3.14339680    0.87979770
 C                 -0.69849430    3.67220780    1.86363770
 C                  0.54767670    2.77173280    1.83483970
 C                  1.19662270    2.72879980    0.43513970
 C                 -1.17207430    2.86248280   -0.46494030
 H                  1.29323870    3.09702980    2.57325670
 H                 -0.43153830    4.69527380    1.53996070
 H                 -1.10897030    3.74965780    2.88058070
 H                  1.84844070    3.60857180    0.28094570
 H                  1.84448970    1.84445280    0.35594470
 H                  0.24647270    1.74993380    2.11097670
 H                 -2.66426830    3.70927280    0.81015170
 H                 -1.82692330    2.90411280   -1.33679330
 C                  0.18626470    2.70685080   -0.68747130
 O                  0.60804370    2.56253580   -1.94430130
 C                 -3.87959330    2.66074080    2.62395070
 H                 -3.54960630    3.68597580    2.85666970
 H                 -4.61248030    2.71354180    1.80243170
 H                 -4.40331630    2.26967180    3.51351370
 Si                 2.15511570    2.63289480   -2.72449430
 C                  1.84281670    1.68930080   -4.32705430
 H                  0.99053170    2.10970680   -4.88508430
 H                  2.72904470    1.72687580   -4.98244730
 H                  1.62625070    0.63015080   -4.11308330
 C                  2.52127370    4.46628280   -3.00333030
 H                  2.62071770    5.01024580   -2.04873130
 H                  3.46767170    4.59399780   -3.55610930
 H                  1.72233870    4.95180480   -3.58713630
 C                  3.52866670    1.80475080   -1.72117230
 H                  3.25728870    0.78136280   -1.42302730
 H                  4.42983070    1.73553980   -2.35583930
 H                  3.80199670    2.36547880   -0.81471030
 Cu                -1.84190630    1.01591580    0.42889870
 O                  0.52973570   -0.53498820   -1.00007830
 P                 -0.79550530   -0.89859720   -0.04979130
 O                 -0.07232730   -1.84432820    1.13546070
 C                  2.51576470   -1.43279620    0.07530470
 C                  1.70097270   -1.29707520   -1.05131130
 C                  0.84797170   -1.11199720    1.90170870
 C                  2.11096470   -0.83230420    1.37682470
 C                  2.54895070    0.48769380    3.44741170
 C                  2.96799970    0.04590680    2.13596470
 C                  1.29065370    0.06382080    3.96515070
 C                  0.43454770   -0.69902620    3.19238570
 H                  0.99642070    0.38268380    4.96700970
 C                  3.72496570   -2.21281620   -0.05927530
 C                  3.24756770   -2.48554320   -2.47859030
 C                  2.05381970   -1.80632820   -2.32531430
 H                  3.54229370   -2.86962920   -3.45718330
 C                  4.10109770   -2.71707720   -1.36160030
 C                  3.38781670    1.37092380    4.18857070
 C                  4.20123870    0.54369780    1.61879470
 C                  4.98310370    1.41881680    2.35767870
 H                  5.91857370    1.79184580    1.93699870
 C                  4.58125970    1.83193280    3.65708570
 H                  5.21195170    2.51279680    4.23081370
 C                  4.55953870   -2.53902520    1.05104970
 C                  5.30734570   -3.46354120   -1.50461030
 C                  6.10870970   -3.73562220   -0.40837830
 H                  7.02749070   -4.31188220   -0.52750130
 C                  5.72010770   -3.27864020    0.87947070
 H                  6.33757470   -3.51835920    1.74679970
 H                  3.06292570    1.68548480    5.18278270
 H                  4.52074370    0.23428780    0.62602570
 H                  4.27420270   -2.20674120    2.04722770
 H                  5.57860370   -3.82804920   -2.49781930
 H                  1.37784970   -1.63380320   -3.16231630
 H                 -0.54926230   -1.00300220    3.55108170
 N                 -1.74447230   -2.01783020   -0.82929130
 C                 -3.19666730   -1.73384220   -0.97400630
 H                 -3.52992430   -2.37926920   -1.80089830
 C                 -1.22543430   -3.36079120   -1.23588430
 H                 -0.16586630   -3.37222220   -0.94310130
 C                 -3.43730630   -0.28836420   -1.46172230
 C                 -4.22387930    0.63814180   -0.73934430
 C                 -2.89540130    0.10501280   -2.70476630
 C                 -4.48812330    1.91587980   -1.27173730
 H                 -4.67980330    0.33877780    0.20374870
 C                 -3.16225030    1.37346080   -3.23219430
 H                 -2.26964130   -0.59984820   -3.25487330
 C                 -3.96928730    2.28202280   -2.52073430
 H                 -5.11439530    2.61100780   -0.70996430
 H                 -2.74753230    1.65446280   -4.20166830
 H                 -4.18793730    3.26547580   -2.93994630
 C                 -4.04829230   -2.09492420    0.24381270
 C                 -5.39993430   -2.42323220    0.02603570
 C                 -3.57111830   -2.02545720    1.56394770
 C                 -6.26242730   -2.66836520    1.10401170
 H                 -5.77928230   -2.47787020   -0.99777630
 C                 -4.43190430   -2.27154920    2.64678270
 H                 -2.52142330   -1.81439020    1.75953470
 C                 -5.78023630   -2.58822820    2.42143970
 H                 -7.30622530   -2.92577920    0.91629070
 H                 -4.04278130   -2.22747120    3.66606370
 H                 -6.44689530   -2.78371420    3.26290070
 C                 -1.29870930   -3.53088120   -2.76229230
 H                 -0.82390230   -4.48154020   -3.04940330
 H                 -2.34087630   -3.55975720   -3.11838130
 H                 -0.77390330   -2.70787720   -3.26976130
 C                 -1.94288930   -4.49070720   -0.48179230
 H                 -1.84921930   -4.35007820    0.60373370
 H                 -3.01298430   -4.52104220   -0.73726930
 H                 -1.49558830   -5.45753820   -0.75967130
