14
test.xyz  Rotated 180
C     -2.593354      0.005436     -0.000075
C     -1.211272     -0.005607     -0.000044
C     -0.440274     -1.207281     -0.000115
C     -2.684890     -2.214600     -0.000320
C     -1.977491      2.028893      0.000188
H     -3.201576     -3.168129     -0.000397
H     -1.969119      3.108099      0.000337
N     -0.830497      1.306391      0.000252
H      0.113611      1.649031      0.000478
N     -3.056930      1.288449     -0.000331
N     -3.362930     -1.123994     -0.000225
N     -1.319200     -2.298585     -0.000242
O      0.765757     -1.343688      0.000006
H     -0.880623     -3.206379     -0.000265

