10
CF:1,0
N      1.522307     -0.000000     -0.000000
H      1.884006      0.354491     -0.999699
C      2.128639     -1.340482      0.257373
H      3.213632     -1.217405      0.286038
H      1.775377     -1.721950      1.219249
H      1.853961     -2.023664     -0.548813
C      2.079747      1.013471      0.944082
H      3.128605      1.166281      0.681213
H      1.526366      1.945022      0.814827
H      1.991278      0.658654      1.973555
