14
tBuOH.xyz 4=>Et 1,3=>Cl
C     -0.831049     -0.040540      0.873654
C     -0.290384      0.694948      2.113952
Cl     -0.275881      0.777838     -0.582246
C     -2.370982     -0.050453      0.863300
Cl     -1.027613     -1.789529      0.873654
H     -0.139827      0.002640      2.950085
H      0.677497      1.167104      1.896420
H     -0.978229      1.484756      2.436672
H     -2.758310     -0.305565     -0.129661
H     -2.761084     -0.793774      1.572059
C     -2.938515      1.322010      1.270548
H     -3.893765      1.189657      1.734100
H     -2.269967      1.794159      1.959765
H     -3.046138      1.935809      0.400739
