65
Following imaginary frequency: scaled by -0.1
C     -0.991798      2.340178     -0.745046
C     -1.113096      3.605673     -1.291653
C     -0.086967      4.523085     -1.053904
C      0.974936      4.151998     -0.249539
H      1.773681      4.843377      0.007077
C      0.995581      2.847532      0.258589
N      0.071912      1.939128     -0.009674
H     -0.137389      5.527721     -1.469086
H     -1.994222      3.867441     -1.871719
Cl      2.261064      2.424661      1.359138
C     -2.087482      1.364455     -0.810124
O     -3.236236      1.746537     -1.356463
N     -2.031253      0.201030     -0.266246
C     -4.100711      0.581321     -1.272784
H     -5.100679      0.934772     -1.011393
H     -4.123511      0.123293     -2.269719
C     -3.420636     -0.301352     -0.217947
C     -4.016806     -0.189630      1.210095
H     -3.442742     -1.359717     -0.518918
Pd      0.064459     -0.446690     -0.137719
C      4.860008      0.281178     -0.256956
C      4.207450     -0.204749     -1.538961
C      2.688868     -0.056039     -1.451109
C      2.133260     -0.709208     -0.215640
C      2.828394     -0.800889      0.939904
H      4.589002      0.358538     -2.401367
H      2.432065      1.019077     -1.415758
C     -0.853057     -2.462610     -2.101912
H     -0.313545     -1.830896     -2.818884
H     -1.900735     -2.135666     -2.083754
C     -0.248578     -2.438690     -0.723652
C      1.170402     -2.547032     -0.563513
C     -1.059403     -3.165909      0.325743
H     -2.121153     -2.878913      0.259554
H     -0.702809     -2.921591      1.341793
H      4.790240      1.380402     -0.190202
C      4.223894     -0.255997      1.003251
O      4.808542     -0.216604      2.070859
H      5.931415      0.048537     -0.213822
H      4.463312     -1.259604     -1.717288
H      2.205218     -0.438992     -2.360434
C      2.312600     -1.343765      2.232946
H      2.903199     -2.205462      2.573319
H      2.417303     -0.583151      3.018508
H      1.252819     -1.621775      2.176483
O     -0.884301     -4.539627      0.034053
H     -1.421124     -5.079895      0.630714
H     -0.844495     -3.495180     -2.486128
C      2.030377     -3.018064     -1.695831
H      3.093308     -3.002854     -1.439628
H      1.742010     -4.066650     -1.880125
H      1.876792     -2.476810     -2.635264
H      1.471657     -2.952499      0.405813
C     -4.076197      1.260995      1.690211
H     -4.515109      1.295521      2.696525
H     -3.076182      1.710440      1.763543
H     -4.700577      1.899963      1.050688
C     -5.426464     -0.783831      1.180641
H     -5.418443     -1.826555      0.829904
H     -5.855133     -0.781481      2.191620
H     -6.117018     -0.216760      0.542204
C     -3.169050     -0.995276      2.194093
H     -3.584149     -0.900953      3.206367
H     -3.169826     -2.065810      1.944848
H     -2.128216     -0.644170      2.226691
