14

C       -2.5931100        0.0360040       -0.0000410
C       -1.2110280        0.0249610       -0.0000100
C       -0.4209260        1.2141620        0.0000960
C       -2.6491600        2.2572200        0.0002000
C       -2.0096590       -1.9970350       -0.0002770
H       -3.1505430        3.2188830        0.0002550
H       -2.0185330       -3.0762370       -0.0004260
N       -0.8512660       -1.2929540       -0.0002900
H        0.0872460       -1.6506360       -0.0004730
N       -3.0771280       -1.2394370        0.0001930
N       -3.3445400        1.1775870        0.0000750
N       -1.2823020        2.3193710        0.0001840
O        0.7871300        1.3312800        0.0000290
H       -0.8292750        3.2200410        0.0002270
