43
methane.xyz 1=>22-{3-5-CF3-Ph}Et
C     -0.316423     -1.497048      0.836313
C     -0.829306     -0.045443      0.873655
H     -0.472634      0.458956      1.747306
H     -0.472634      0.458956      0.000003
H     -1.867188     -0.035714      0.873641
H     -1.019330     -2.176742      1.331302
H     -0.193897     -1.843619     -0.199023
C      1.052117     -1.619118      1.531867
C      1.846163     -2.778883      0.902551
H      1.596905     -0.706311      1.409849
C      0.842524     -1.895186      3.032353
C      1.217273     -3.654521      0.011215
C      3.196308     -2.956694      1.222260
C      3.288676     -4.885782     -0.240704
C      3.917565     -4.010144      0.650632
C      1.938530     -4.707970     -0.560413
H      0.167813     -3.516309     -0.237294
C      1.246172     -5.671978     -1.541703
H      3.849304     -5.704622     -0.685026
C      5.403968     -4.205900      1.002607
H      3.685141     -2.276066      1.915091
F     -0.085307     -5.323995     -1.676061
F      1.332524     -6.966338     -1.062996
F      1.862267     -5.601458     -2.777606
F      5.894408     -5.322550      0.351037
F      5.541232     -4.378218      2.367689
F      6.126738     -3.094778      0.608890
C     -0.172836     -2.762574      3.448771
C      1.667506     -1.278558      3.978873
C      0.461765     -2.396706      5.758229
C      1.477126     -1.529318      5.341811
C     -0.363216     -3.013334      4.811709
H     -0.814090     -3.241876      2.713047
C     -1.481047     -3.968260      5.270152
H      0.313785     -2.591621      6.817633
C      2.385365     -0.850459      6.383854
H      2.456740     -0.604341      3.655194
F     -2.183337     -4.426198      4.170577
F     -2.346247     -3.300820      6.117464
F     -0.929164     -5.045359      5.938945
F      1.989941     -1.217621      7.656966
F      2.294487      0.523475      6.257244
F      3.696855     -1.240447      6.184092
