67
 F: K:3; C:36 L:37-67
 C     -2.712197      1.757726      2.257356
 H     -3.096822      0.728849      2.103738
 H     -1.921478      1.722489      3.014287
 C     -1.734279      3.143397      0.879798
 C     -0.698494      3.672208      1.863638
 C      0.547677      2.771733      1.834840
 C      1.196623      2.728800      0.435140
 C     -1.172074      2.862483     -0.464940
 H      1.293239      3.097030      2.573257
 H     -0.431538      4.695274      1.539961
 H     -1.108970      3.749658      2.880581
 H      1.848441      3.608572      0.280946
 H      1.844490      1.844453      0.355945
 H      0.246473      1.749934      2.110977
 H     -2.664268      3.709273      0.810152
 H     -1.826923      2.904113     -1.336793
 C      0.186265      2.706851     -0.687471
 O      0.608044      2.562536     -1.944301
 C     -3.879593      2.660741      2.623951
 H     -3.549606      3.685976      2.856670
 H     -4.612480      2.713542      1.802432
 H     -4.403316      2.269672      3.513514
Si      2.155116      2.632895     -2.724494
 C      1.842817      1.689301     -4.327054
 H      0.990532      2.109707     -4.885084
 H      2.729045      1.726876     -4.982447
 H      1.626251      0.630151     -4.113083
 C      2.521274      4.466283     -3.003330
 H      2.620718      5.010246     -2.048731
 H      3.467672      4.593998     -3.556109
 H      1.722339      4.951805     -3.587136
 C      3.528667      1.804751     -1.721172
 H      3.257289      0.781363     -1.423027
 H      4.429831      1.735540     -2.355839
 H      3.801997      2.365479     -0.814710
Cu     -1.841906      1.015916      0.428899
 C      0.128736     -2.652264     -1.347761
 C      0.752727     -2.688568      0.039816
 C     -0.846833     -0.819170     -0.024370
 H      0.919805     -2.535301     -2.130337
 H     -0.404760     -3.612663     -1.560844
 H      1.855575     -2.509013     -0.025199
 H      0.610276     -3.694061      0.509003
 N      0.089558     -1.607106      0.880475
 N     -0.844945     -1.483179     -1.393924
 C      0.231878     -1.453093      2.365745
 C     -1.768017     -1.107327     -2.514937
 C     -0.804223     -1.827120      3.221400
 C     -0.597732     -1.844142      4.601089
 C      0.644410     -1.486551      5.124955
 C      1.681127     -1.112851      4.268928
 C      1.474755     -1.096314      2.889554
 H     -1.415008     -2.138324      5.275448
 H      0.807054     -1.499339      6.212466
 H      2.660443     -0.831000      4.682205
 F      2.477480     -0.734847      2.061071
 F     -2.006801     -2.172764      2.714608
 C     -3.984554     -0.930243     -3.460271
 C     -3.150024     -1.245344     -2.387543
 C     -1.219876     -0.655146     -3.715892
 C     -2.054237     -0.340592     -4.788476
 C     -3.436709     -0.477768     -4.660554
 H     -5.074149     -1.038704     -3.359478
 H     -1.622543      0.015796     -5.735102
 H     -4.094291     -0.229544     -5.506189
 F     -3.680703     -1.682347     -1.225688
 F      0.117867     -0.521720     -3.838937
