86
PengLiu
 Cl                 0.06336700   -1.68176600    2.41068800
 C                 -2.47419900   -2.79750300   -0.66146700
 C                 -3.21061200   -1.13930600   -2.75973100
 C                 -1.56382900   -1.81928600   -1.09194400
 C                 -3.78448900   -2.85366400   -1.15340300
 C                 -4.15147100   -2.00607200   -2.19473700
 C                 -1.92218200   -1.05566000   -2.22260200
 H                 -4.46087600   -3.60902500   -0.76518400
 H                 -5.15829200   -2.05728600   -2.60117800
 H                 -3.48250300   -0.51203400   -3.60510200
 C                  0.42024600   -0.20763600   -2.00943700
 C                 -0.87788900   -0.15092700   -2.82046000
 H                 -0.66098200   -0.39679400   -3.86946000
 H                 -1.20632000    0.89733400   -2.81014700
 O                  1.49092100    0.00971000   -2.54121600
 O                 -2.06438700   -3.81694000    0.13772900
 C                 -0.63806700   -3.99251100    0.15521600
 H                 -0.45897800   -5.06503300   -0.00544400
 H                 -0.26507000   -3.69680000    1.13444300
 C                  0.08061400   -3.20585400   -0.93667300
 C                  1.30103200   -2.58551500   -0.55526500
 C                 -0.03322700   -3.72688000   -2.35826700
 H                 -1.05467800   -4.00462800   -2.62713300
 H                  0.60128800   -4.62248100   -2.43211800
 H                  0.34213700   -2.99891000   -3.08233100
 H                  2.04318500   -2.40036100   -1.32695500
 H                  1.69211100   -2.80369100    0.43335000
 Rh                 0.16484800   -0.77568600   -0.11211900
 H                  0.35171900    2.81750900    1.07023100
 C                 -0.43363700    2.37375300    1.69018400
 H                 -1.16230000    3.17048200    1.87361500
 C                  0.16760700    1.87932000    3.03010000
 H                 -0.20431000    0.88409700    3.29229000
 H                 -0.18414600    2.55809600    3.81601200
 C                  1.70681400    1.87932000    3.07260200
 H                  2.01233400    1.91352100    4.12712800
 C                  2.42750700    0.65789600    2.47620000
 H                  2.06403500   -0.24665300    2.97029900
 H                  3.50099200    0.75283500    2.67789800
 P                 -1.30417700    1.09445300    0.64155500
 P                  2.26231100    0.31117500    0.64441100
 C                 -2.09612800    2.19604300   -0.63165200
 C                 -3.30250700    3.80338900   -2.61446000
 C                 -1.46118600    3.35678200   -1.10694500
 C                 -3.35257400    1.86150600   -1.16669000
 C                 -3.94710000    2.65606800   -2.14760600
 C                 -2.05859000    4.15214300   -2.08788100
 H                 -0.49836900    3.66006600   -0.71118100
 H                 -3.87386000    0.97854700   -0.81415500
 H                 -4.92012900    2.37743200   -2.54364900
 H                 -1.55053700    5.04878600   -2.43337100
 H                 -3.76815900    4.42256000   -3.37645900
 C                 -2.78126200    0.68676400    1.68592100
 C                 -5.03291800    0.14300300    3.27893100
 C                 -3.61982900    1.72824800    2.12537700
 C                 -3.08810800   -0.62865300    2.05497600
 C                 -4.21017500   -0.89503800    2.84601000
 C                 -4.73395500    1.45984000    2.91750200
 H                 -3.41487000    2.75539100    1.83652100
 H                 -2.43607300   -1.43944900    1.76022300
 H                 -4.42958100   -1.92143500    3.12677300
 H                 -5.36909600    2.27712800    3.24941400
 H                 -5.90230400   -0.06812500    3.89639500
 C                  3.71812900   -0.79042700    0.35762900
 C                  5.87642800   -2.52135500   -0.15232800
 C                  4.16648400   -1.68312000    1.34417600
 C                  4.35234200   -0.79208200   -0.89680200
 C                  5.42509200   -1.64858700   -1.14553100
 C                  5.24126600   -2.53906400    1.08974900
 H                  3.67723400   -1.72427100    2.31192100
 H                  3.99628300   -0.13131600   -1.68033600
 H                  5.90833500   -1.63306000   -2.11901000
 H                  5.57859800   -3.21994600    1.86684600
 H                  6.71409600   -3.18573300   -0.34740600
 C                  2.88252800    1.90202900   -0.08940200
 C                  3.84225300    4.35371900   -1.09461000
 C                  4.11874300    2.42170000    0.33509800
 C                  2.14611800    2.62786200   -1.03330500
 C                  2.62044900    3.84444600   -1.53239000
 C                  4.59263100    3.63610300   -0.15973200
 H                  4.72497400    1.86973100    1.04735500
 H                  1.20976200    2.23185300   -1.40249800
 H                  2.03559700    4.38499600   -2.27200300
 H                  5.55069200    4.01915100    0.18170100
 H                  4.21318000    5.29830800   -1.48340900
 H                  2.09108200    2.80374400    2.62009500
