90
test.xyz 25=>MePh3 18=>Pr
C      3.286916      1.022440      0.109246
H      0.211579      1.485667     -0.605279
C      3.277216      0.911686     -1.302764
C      4.473999      1.013538     -2.024583
C      5.651296      1.209168     -1.327437
C      5.645618      1.302861      0.072288
H      4.509538      1.290910      1.893704
C      4.474269      1.209685      0.812977
C      1.100897      0.680591     -0.605884
C      1.926569      0.715822     -1.710754
H      4.468689      0.939929     -3.109075
H      6.592445      1.292692     -1.863156
H      6.584859      1.457198      0.596777
H      1.575194      0.679345     -2.736854
N      1.962865      0.877448      0.537111
C      1.389058      0.853992      1.774357
O      0.230675      0.411654      1.879794
C      2.154233      1.359147      3.011663
O     -0.725806      2.617421     -0.324474
O     -2.031539      0.848619      0.118524
C     -1.823302      2.111044     -0.027997
C     -3.057683      3.004226      0.195900
Ir     -0.544279     -0.626665      0.051263
C     -2.006429     -2.199560     -0.398394
C      0.058951     -2.638611      0.606020
C      0.293394     -2.457129     -0.789684
C     -0.979383     -2.123157     -1.417310
C     -1.371482     -2.471074      0.856473
C      1.598752     -2.615821     -1.483817
C      1.077486     -2.961213      1.640205
C     -2.025098     -2.596343      2.185861
C     -3.449309     -1.929166     -0.617371
C     -1.208928     -1.916590     -2.872230
H     -0.342222     -1.451773     -3.352674
H     -2.073650     -1.270827     -3.050970
H     -1.395281     -2.874567     -3.373985
H     -3.937177     -1.581301      0.296912
H     -3.956979     -2.841922     -0.952465
H     -3.595295     -1.159417     -1.381030
H     -2.995997     -2.093977      2.204269
H     -1.407843     -2.150178      2.972927
H     -2.183815     -3.651496      2.441503
H      0.837013     -2.484719      2.596379
H      2.076086     -2.630435      1.334676
H      1.123383     -4.043805      1.812118
H      2.433875     -2.278135     -0.860430
H      1.632065     -2.050733     -2.419837
H      1.766628     -3.672077     -1.727353
C     -2.613399      4.435752      0.549373
C     -3.909009      2.444378      1.350636
C     -3.914404      3.046989     -1.083084
C     -4.168988      1.072009      1.426372
C     -4.422315      3.308222      2.323784
C     -5.455580      1.427325      3.448402
C     -5.195600      2.799695      3.372667
C     -4.942274      0.563482      2.475255
H     -3.769999      0.400548      0.669950
H     -5.144354     -0.503254      2.534123
H     -6.056650      1.032051      4.263692
H     -5.594590      3.471156      4.129089
H     -4.220234      4.374957      2.264915
C     -4.715715      1.952609     -1.425073
C     -3.891279      4.180212     -1.902837
C     -5.470776      3.124675     -3.406567
C     -4.669465      4.219055     -3.064578
C     -5.493902      1.991452     -2.586814
H     -4.733691      1.071760     -0.787884
H     -6.116757      1.140796     -2.852639
H     -6.075656      3.154867     -4.309581
H     -4.651489      5.099903     -3.701767
H     -3.268424      5.030868     -1.637012
C     -3.527435      5.332988      1.111719
C     -1.295807      4.838818      0.308097
C     -1.806286      7.036353      1.191513
C     -0.892251      6.139118      0.629167
C     -3.123878      6.633288      1.432789
H     -4.551592      5.019687      1.299261
H     -3.834353      7.330704      1.869897
H     -1.492604      8.047069      1.441079
H      0.131906      6.452418      0.441625
H     -0.585332      4.141402     -0.129011
H      2.881271      0.589869      3.347863
C      1.146766      1.665474      4.135395
H      2.703955      2.291496      2.762804
H      0.238839      1.061086      4.028345
H      1.580069      1.440891      5.119700
C      0.746146      3.152450      4.132750
H      0.490067      3.454611      5.126743
H      1.566642      3.742267      3.780895
H     -0.096625      3.293630      3.488773
