42
 K:6,4;24;
C      0.000000      0.000000      0.000000
S      0.603551     -1.371574      0.792118
N      0.752711      1.081469     -0.385905
H      0.243718      1.783050     -0.930746
N     -1.302638      0.138813     -0.350387
H     -1.564333      1.007230     -0.841708
C      2.082708      1.440799     -0.091539
C     -2.346412     -0.851386     -0.190847
C     -3.662327     -0.163121      0.215907
C     -2.562915     -1.673602     -1.476778
H     -2.039578     -1.542321      0.601377
C     -4.760659     -1.210304      0.440334
H     -3.967551      0.523129     -0.584791
C     -3.662636     -2.723150     -1.276031
H     -2.837398     -0.989654     -2.292837
H     -1.607855     -2.143504     -1.738585
C     -4.968837     -2.055137     -0.828742
H     -5.702551     -0.723267      0.711362
H     -4.470504     -1.867482      1.271003
H     -3.820023     -3.286002     -2.204640
H     -3.338994     -3.441456     -0.508248
H     -5.743749     -2.807276     -0.636565
H     -5.338098     -1.403363     -1.634218
N     -3.460798      0.750419      1.416844
C     -2.779143      0.092501      2.571513
C     -4.739968      1.381412      1.858122
C      2.725284      1.143252      1.121064
C      2.753034      2.220108     -1.052118
C      4.026373      1.600158      1.346243
H      2.206228      0.565166      1.875762
C      4.046903      2.682239     -0.811566
H      2.249957      2.456370     -1.987778
C      4.696254      2.367602      0.387440
H      4.513728      1.362288      2.289705
H      4.549474      3.283213     -1.566516
H      5.707905      2.720551      0.574113
H     -2.731979      0.815559      3.388912
H     -3.355806     -0.781777      2.885542
H     -1.769532     -0.201207      2.277329
H     -4.485442      2.224945      2.503275
H     -5.270284      1.738662      0.973893
H     -5.350897      0.655952      2.400349
